LAMMPS (29 Aug 2024 - Update 2)
#3d Lennard-jones melt

units lj
atom_style atomic
lattice fcc 0.2
Lattice spacing in x,y,z = 2.7144176 2.7144176 2.7144176
region box block 0 10 0 10 0 10
create_box 1 box
Created orthogonal box = (0 0 0) to (27.144176 27.144176 27.144176)
create_atoms 1 box
Created 4000 atoms

mass 1 1.0
velocity all create 0.1 87287
pair_style lj/cut 2.5
pair_coeff 1 1 1.0 1.0 2.5
neighbor 0.3 bin
neigh_modify every 20 delay 0 check no

fix 1 all nvt temp 0.05 0.05 1.0
dump id all atom 50 dump.lammpstrj
thermo 100
run 10000
Generated 0 of 0 mixed pair_coeff terms from geometric mixing rule
Step          Temp          E_pair         E_mol          TotEng         Press
0   0.1           -0.4704         0             -0.3204375     -0.164325
Averages over the last 51 of 101 rows, steps 5000 to 10000:
Temp E_pair E_mol TotEng Press
0.0519723 -5.60753 0 -5.52959 -0.0374926
Loop time of 15.7877 on 1 procs for 10000 steps with 4000 atoms
